Version 4
SHEET 1 1960 688
WIRE 1184 -656 960 -656
WIRE -320 -432 -320 -480
WIRE 16 -368 16 -480
WIRE -1600 -352 -1600 -480
WIRE -3008 -272 -3008 -352
WIRE -320 -272 -320 -352
WIRE -320 -272 -1360 -272
WIRE -1600 -224 -1600 -272
WIRE -560 -224 -1600 -224
WIRE -1360 -192 -1360 -272
WIRE 1184 -176 1184 -656
WIRE -560 -160 -560 -224
WIRE -320 -144 -320 -272
WIRE -240 -144 -320 -144
WIRE -80 -144 -160 -144
WIRE -3008 -96 -3008 -192
WIRE -3008 -96 -3088 -96
WIRE -2832 -96 -3008 -96
WIRE -2608 -96 -2752 -96
WIRE -1600 -96 -1600 -224
WIRE -320 -96 -320 -144
WIRE 16 -96 16 -288
WIRE 736 -96 16 -96
WIRE 960 -96 960 -656
WIRE 960 -96 800 -96
WIRE 736 -64 608 -64
WIRE 960 -64 800 -64
WIRE -3088 -48 -3088 -96
WIRE -1360 -48 -1360 -112
WIRE -1360 -48 -1536 -48
WIRE -1280 -48 -1360 -48
WIRE -1104 -48 -1200 -48
WIRE -720 -48 -816 -48
WIRE -560 -48 -560 -80
WIRE -560 -48 -640 -48
WIRE -384 -48 -560 -48
WIRE -1104 -16 -1104 -48
WIRE -816 -16 -816 -48
WIRE 16 0 16 -96
WIRE -3008 32 -3008 -96
WIRE -1360 32 -1360 -48
WIRE -560 48 -560 -48
WIRE -80 48 -80 -144
WIRE -48 48 -80 48
WIRE 608 96 608 -64
WIRE 960 128 960 -64
WIRE -1360 144 -1360 112
WIRE -1104 144 -1360 144
WIRE -560 160 -560 128
WIRE -560 160 -816 160
WIRE -1104 176 -1104 144
WIRE -816 192 -816 160
WIRE -3008 208 -3008 112
WIRE -1600 288 -1600 0
WIRE -1104 288 -1104 256
WIRE -1104 288 -1600 288
WIRE -816 288 -816 272
WIRE -320 288 -320 0
WIRE -320 288 -816 288
WIRE 16 288 16 96
WIRE 608 288 608 176
WIRE 608 288 16 288
WIRE 960 288 960 208
WIRE 960 288 608 288
WIRE 1184 288 1184 -96
WIRE 1184 288 960 288
WIRE -1600 320 -1600 288
WIRE 960 320 960 288
WIRE -320 336 -320 288
FLAG -320 336 0
FLAG -1600 320 0
FLAG 960 320 0
FLAG -3088 -48 0
FLAG -3008 -352 5V
IOPIN -3008 -352 Out
FLAG -3008 208 -5V
IOPIN -3008 208 Out
FLAG -2608 -96 14V
IOPIN -2608 -96 Out
FLAG -1600 -480 5V
IOPIN -1600 -480 In
FLAG -320 -480 5V
IOPIN -320 -480 In
FLAG -1104 -16 0
FLAG -816 -16 0
FLAG 16 -480 14V
IOPIN 16 -480 In
SYMBOL npn -384 -96 R0
SYMATTR InstName Q1
SYMATTR Value 2N3904
SYMBOL res -336 -448 R0
SYMATTR InstName R1
SYMATTR Value 1k
SYMBOL npn -1536 -96 M0
SYMATTR InstName Q2
SYMATTR Value 2N3904
SYMBOL res -1584 -368 M0
SYMATTR InstName R4
SYMATTR Value 1k
SYMBOL AutoGenerated\\MOC3020 768 -80 R0
SYMATTR InstName U1
SYMBOL voltage 1184 -192 R0
WINDOW 123 0 0 Left 2
WINDOW 39 0 0 Left 2
SYMATTR InstName V5
SYMATTR Value SINE(0 20 50)
SYMBOL res 944 112 R0
SYMATTR InstName R8
SYMATTR Value 10k
SYMBOL voltage -3008 -288 R0
WINDOW 123 0 0 Left 2
WINDOW 39 0 0 Left 2
SYMATTR InstName V1
SYMATTR Value 5
SYMBOL voltage -3008 16 R0
WINDOW 123 0 0 Left 2
WINDOW 39 0 0 Left 2
SYMATTR InstName V2
SYMATTR Value 5
SYMBOL voltage -2736 -96 R90
WINDOW 123 0 0 Left 2
WINDOW 39 0 0 Left 2
SYMATTR InstName V3
SYMATTR Value 14
SYMBOL voltage -1104 160 R0
WINDOW 123 0 0 Left 2
WINDOW 39 0 0 Left 2
SYMATTR InstName V7
SYMATTR Value PULSE(0 5 0 2m 2m 250m 500m)
SYMBOL res -544 -64 R180
WINDOW 0 36 76 Left 2
WINDOW 3 36 40 Left 2
SYMATTR InstName R5
SYMATTR Value 10k
SYMBOL res -544 144 R180
WINDOW 0 36 76 Left 2
WINDOW 3 36 40 Left 2
SYMATTR InstName R6
SYMATTR Value 10k
SYMBOL res -1344 128 R180
WINDOW 0 36 76 Left 2
WINDOW 3 36 40 Left 2
SYMATTR InstName R10
SYMATTR Value 10k
SYMBOL res -1344 -96 R180
WINDOW 0 36 76 Left 2
WINDOW 3 36 40 Left 2
SYMATTR InstName R11
SYMATTR Value 10k
SYMBOL voltage -816 176 R0
WINDOW 123 0 0 Left 2
WINDOW 39 0 0 Left 2
SYMATTR InstName V4
SYMATTR Value PULSE(0 5 125m 2m 2m 250m 500m)
SYMBOL res -1296 -32 R270
WINDOW 0 32 56 VTop 2
WINDOW 3 0 56 VBottom 2
SYMATTR InstName R3
SYMATTR Value 100k
SYMBOL res -736 -32 R270
WINDOW 0 32 56 VTop 2
WINDOW 3 0 56 VBottom 2
SYMATTR InstName R7
SYMATTR Value 100k
SYMBOL res 592 80 R0
SYMATTR InstName R2
SYMATTR Value 150
SYMBOL npn -48 0 R0
SYMATTR InstName Q3
SYMATTR Value 2N3904
SYMBOL res -256 -128 R270
WINDOW 0 32 56 VTop 2
WINDOW 3 -6 55 VBottom 2
SYMATTR InstName R9
SYMATTR Value 100k
SYMBOL res 0 -384 R0
SYMATTR InstName R12
SYMATTR Value 680
TEXT -1008 360 Left 2 !.tran 1
TEXT -1144 608 Left 2 !.inc "H:\\EDesign 344\\LTSpice\\MOC302x.lib"
TEXT -1152 672 Left 2 !.inc "H:\\EDesign 344\\LTSpice\\TL081.lib"
